48
 SCF done        -73.444774308887          0.000045243041
C           1.04416440155078    0.38034464007181    0.45750146513359
C          -0.32651702093888    0.43712751203861    0.15729172006215
C          -0.84781080140733    1.56477329037553   -0.53943672982551
C          -0.08533278614866    2.74924644670522   -0.62962899736421
C           1.23342735465468    2.72110433728071   -0.13464452635211
C           1.79576510288555    1.56501477489745    0.32325100844070
C           1.64634149228165   -0.89138572607695    0.78563879047039
C           0.84984974573913   -2.04403537329429    0.79685019444645
C          -0.57261294037805   -1.87423249862187    0.97088922562781
C          -1.16250212863396   -0.63099673095649    0.65045539961518
C          -2.08384954251228    1.49157060898468   -1.24137633109558
C          -2.59403111877163    2.56984217937450   -1.88266499338858
C          -1.92842356809279    3.82430425839971   -1.85652458742636
C          -0.65650746505319    3.91999362586786   -1.24311501763565
C           3.03780100387614   -1.02917898762665    1.01510115828867
C           3.61422519744321   -2.25047285276603    1.16623094134494
C           2.86638928784806   -3.43330503168356    0.95939359773690
C           1.47301138901490   -3.32895042423795    0.72118489491158
C          -2.49969034381697    4.95552022982535   -2.46220870765220
C          -1.84555375728414    6.15929243571633   -2.46184151206874
C          -0.59290172616276    6.26267423188024   -1.85378335147981
C          -0.01176352139565    5.16847122884152   -1.26356218532485
C           3.48234673580848   -4.69783452718306    0.94247615925778
C           2.76595545019355   -5.82212129227237    0.63336476061520
C           1.41478889853157   -5.70948400300976    0.28723321328998
C           0.78384045229609   -4.49377721967113    0.32852508373926
C          -1.35601565484543   -2.84823538688666    1.60614192273320
C          -2.68887151318554   -2.63376133448589    1.86670222122948
C          -3.26954254938034   -1.40991259570816    1.55086841413564
C          -2.50852662645023   -0.41743401334735    0.97979362185544
H           1.84212178613264    3.61032088527635   -0.17163280974484
H           2.83785294868535    1.57592320095976    0.59957867621393
H          -2.58279630296028    0.53706780567086   -1.31320648166353
H          -3.51901718394940    2.49250398890125   -2.43655088115496
H           3.65486331501227   -0.14872422813016    1.09494959509654
H           4.66803753863395   -2.33634036938767    1.38990036738709
H          -3.47078182604173    4.85850371526743   -2.92711700588145
H          -2.29148908832246    7.02657250326552   -2.92613859760142
H          -0.07959362365357    7.21330040673868   -1.84760485246008
H           0.95257306730303    5.28681230955192   -0.79507578465866
H           4.54048682319478   -4.76031568784491    1.15408367173758
H           3.24401971388540   -6.79058130366197    0.61861675662508
H           0.87098680486825   -6.58855439943810   -0.02691257296605
H          -0.24262433484071   -4.41679345773918    0.00359888448190
H          -0.88980956844061   -3.75590408837946    1.95700295884945
H          -3.27224886034614   -3.39757622342788    2.35959717421686
H          -4.30420071679246   -1.22255158654765    1.79788065699892
H          -2.93783392440749    0.56317474247339    0.84192339647428
