30
 SCF done        -44.664142487516          0.000006092547
C           0.16320537026801   -0.31172094580089    0.00020784501820
C          -1.25653607032259   -0.48107503628388    0.00430162983353
C          -2.08697287580140    0.62841909805638    0.00244930455604
C          -1.57863648513887    1.92875847880843   -0.00332628451278
C          -0.16535994744207    2.10490678847095   -0.00763430443939
C           0.66552328798229    0.97924082631479   -0.00578263711782
C           1.00762656518608   -1.48975530883636    0.00265947498397
C           0.40729730703662   -2.76931944565345    0.00899800872034
C          -1.01666863037098   -2.88922805198445    0.01264396902852
C          -1.80912133081701   -1.79875131109936    0.01039028476603
C          -2.41153756191589    3.07261311298518   -0.00497600687287
C          -1.87387200009713    4.32530032842092   -0.01060320384261
C          -0.47645841763591    4.50083858385395   -0.01496654127087
C           0.35541166475746    3.42053639065589   -0.01354629373931
C           2.40758775412180   -1.42331576255821   -0.00080930736212
C           3.17979990176632   -2.56149070262231    0.00196657131776
C           2.58182335954624   -3.81932787938833    0.00832952852345
C           1.21228148601567   -3.91665808074039    0.01173710570506
H          -3.15898527146205    0.48397432685440    0.00565229121539
H           1.73069190033973    1.15366033794598   -0.00915430648027
H          -1.44047690250197   -3.88364010838465    0.01730751393848
H          -2.88584802089399   -1.89421575151197    0.01319048119133
H          -3.48308195992673    2.93080010656395   -0.00162996440768
H          -2.51402910090430    5.19554863313443   -0.01177919272125
H          -0.07160810293009    5.50244349811216   -0.01943345962503
H           1.42843608003820    3.55193540402904   -0.01686891051737
H           2.90354374310384   -0.46555030549852   -0.00573037043854
H           4.25705520565512   -2.47995469012266   -0.00078409054761
H           3.19423157304122   -4.70899923694547    0.01053835122207
H           0.73367747930243   -4.88597329153959    0.01665251736610
